README.md
setup.py
OpenFastSEES.egg-info/PKG-INFO
OpenFastSEES.egg-info/SOURCES.txt
OpenFastSEES.egg-info/dependency_links.txt
OpenFastSEES.egg-info/entry_points.txt
OpenFastSEES.egg-info/requires.txt
OpenFastSEES.egg-info/top_level.txt
openseespy/__init__.py
openseespy/opensees/__init__.py
openseespy/postprocessing/ModelToJSON.py
openseespy/postprocessing/__init__.py
openseespy/preprocessing/DiscretizeMember.py
openseespy/preprocessing/__init__.py
pyFAST/__init__.py
pyFAST/common.py
pyFAST/airfoils/DynamicStall.py
pyFAST/airfoils/Polar.py
pyFAST/airfoils/__init__.py
pyFAST/airfoils/polar_file.py
pyFAST/airfoils/tests/__init__.py
pyFAST/airfoils/tests/test_polar_interp.py
pyFAST/airfoils/tests/test_polar_manip.py
pyFAST/airfoils/tests/test_polar_params.py
pyFAST/airfoils/tests/test_polar_subfunctions.py
pyFAST/airfoils/tests/test_run_Examples.py
pyFAST/case_generation/__init__.py
pyFAST/case_generation/case_gen.py
pyFAST/case_generation/runner.py
pyFAST/case_generation/tests/__init__.py
pyFAST/case_generation/tests/test_run_Examples.py
pyFAST/converters/__init__.py
pyFAST/converters/beam.py
pyFAST/converters/beamDynToHawc2.py
pyFAST/converters/beamdyn.py
pyFAST/converters/elastodyn.py
pyFAST/converters/hawc2.py
pyFAST/converters/hawc2ToBeamDyn.py
pyFAST/converters/hawc2ToElastoDyn.py
pyFAST/converters/hawc2ToOpenfast.py
pyFAST/converters/openfastToHawc2.py
pyFAST/converters/tests/__init__.py
pyFAST/converters/tests/test_K_BD_H2.py
pyFAST/converters/tests/test_beamprops.py
pyFAST/converters/tests/test_hawc2ToBeamDyn.py
pyFAST/converters/tests/test_run_Examples.py
pyFAST/fastfarm/AMRWindSimulation.py
pyFAST/fastfarm/FASTFarmCaseCreation.py
pyFAST/fastfarm/TurbSimCaseCreation.py
pyFAST/fastfarm/__init__.py
pyFAST/fastfarm/fastfarm.py
pyFAST/fastfarm/tests/__init__.py
pyFAST/fastfarm/tests/test_run_Examples.py
pyFAST/fastfarm/tests/test_turbsimExtent.py
pyFAST/input_output/__init__.py
pyFAST/input_output/amrwind_file.py
pyFAST/input_output/bladed_out_file.py
pyFAST/input_output/bmodes_out_file.py
pyFAST/input_output/cactus_element_file.py
pyFAST/input_output/cactus_file.py
pyFAST/input_output/converters.py
pyFAST/input_output/csv_file.py
pyFAST/input_output/excel_file.py
pyFAST/input_output/fast_input_deck.py
pyFAST/input_output/fast_input_file.py
pyFAST/input_output/fast_input_file_graph.py
pyFAST/input_output/fast_linearization_file.py
pyFAST/input_output/fast_output_file.py
pyFAST/input_output/fast_summary_file.py
pyFAST/input_output/fast_wind_file.py
pyFAST/input_output/file.py
pyFAST/input_output/file_formats.py
pyFAST/input_output/flex_blade_file.py
pyFAST/input_output/flex_doc_file.py
pyFAST/input_output/flex_out_file.py
pyFAST/input_output/flex_profile_file.py
pyFAST/input_output/flex_wavekin_file.py
pyFAST/input_output/hawc2_ae_file.py
pyFAST/input_output/hawc2_dat_file.py
pyFAST/input_output/hawc2_htc_file.py
pyFAST/input_output/hawc2_pc_file.py
pyFAST/input_output/hawc2_st_file.py
pyFAST/input_output/hawcstab2_cmb_file.py
pyFAST/input_output/hawcstab2_ind_file.py
pyFAST/input_output/hawcstab2_pwr_file.py
pyFAST/input_output/mannbox_file.py
pyFAST/input_output/mannbox_input_file.py
pyFAST/input_output/matlabmat_file.py
pyFAST/input_output/mini_yaml.py
pyFAST/input_output/netcdf_file.py
pyFAST/input_output/parquet_file.py
pyFAST/input_output/pickle_file.py
pyFAST/input_output/postpro.py
pyFAST/input_output/raawmat_file.py
pyFAST/input_output/rosco_discon_file.py
pyFAST/input_output/rosco_performance_file.py
pyFAST/input_output/tdms_file.py
pyFAST/input_output/tecplot_file.py
pyFAST/input_output/turbsim_file.py
pyFAST/input_output/turbsim_ts_file.py
pyFAST/input_output/vtk_file.py
pyFAST/input_output/tests/__init__.py
pyFAST/input_output/tests/helpers_for_test.py
pyFAST/input_output/tests/test_bladed.py
pyFAST/input_output/tests/test_csv.py
pyFAST/input_output/tests/test_fast_input.py
pyFAST/input_output/tests/test_fast_input_deck.py
pyFAST/input_output/tests/test_fast_linearization.py
pyFAST/input_output/tests/test_fast_output.py
pyFAST/input_output/tests/test_fast_summary.py
pyFAST/input_output/tests/test_flex.py
pyFAST/input_output/tests/test_hawc.py
pyFAST/input_output/tests/test_mannbox.py
pyFAST/input_output/tests/test_parquet.py
pyFAST/input_output/tests/test_run_Examples.py
pyFAST/input_output/tests/test_turbsim.py
pyFAST/input_output/tests/test_vtk.py
pyFAST/input_output/tests/test_yaml.py
pyFAST/input_output/tools/__init__.py
pyFAST/input_output/tools/graph.py
pyFAST/input_output/wetb/__init__.py
pyFAST/input_output/wetb/hawc2/Hawc2io.py
pyFAST/input_output/wetb/hawc2/__init__.py
pyFAST/input_output/wetb/hawc2/ae_file.py
pyFAST/input_output/wetb/hawc2/htc_contents.py
pyFAST/input_output/wetb/hawc2/htc_extensions.py
pyFAST/input_output/wetb/hawc2/htc_file.py
pyFAST/input_output/wetb/hawc2/htc_file_set.py
pyFAST/input_output/wetb/hawc2/pc_file.py
pyFAST/input_output/wetb/hawc2/st_file.py
pyFAST/linearization/__init__.py
pyFAST/linearization/campbell.py
pyFAST/linearization/campbell_data.py
pyFAST/linearization/linearization.py
pyFAST/linearization/linfile.py
pyFAST/linearization/mbc.py
pyFAST/linearization/plotCampbellData.py
pyFAST/linearization/plotModeShapes.py
pyFAST/linearization/tools.py
pyFAST/linearization/tests/__init__.py
pyFAST/linearization/tests/test_campbell_data.py
pyFAST/linearization/tests/test_modesID.py
pyFAST/linearization/tests/test_modesVizBinary.py
pyFAST/linearization/tests/test_run_Examples.py
pyFAST/modules/__init__.py
pyFAST/modules/olaf.py
pyFAST/postpro/__init__.py
pyFAST/postpro/postpro.py
pyFAST/postpro/tests/__init__.py
pyFAST/postpro/tests/test_run_Examples.py
pyFAST/tools/__init__.py
pyFAST/tools/curve_fitting.py
pyFAST/tools/damping.py
pyFAST/tools/eva.py
pyFAST/tools/fatigue.py
pyFAST/tools/pandalib.py
pyFAST/tools/signal_analysis.py
pyFAST/tools/spectral.py
pyFAST/tools/stats.py
pyFAST/tools/tictoc.py
pyFAST/tools/tests/__init__.py
pyFAST/tools/tests/test_fatigue.py