Metadata-Version: 2.1
Name: OpenFastSEES
Version: 3.5.1
Summary: Combined package of OpenSeesPy and pyFAST
Home-page: https://github.com/yourusername/OpenFastSEES
Classifier: Topic :: Utilities
Classifier: Topic :: Software Development :: Testing
Classifier: Development Status :: 4 - Beta
Classifier: Programming Language :: Python :: 3.6
Classifier: Programming Language :: Python :: 3.7
Classifier: Programming Language :: Python :: 3.8
Classifier: Programming Language :: Python :: 3.9
Classifier: Programming Language :: Python :: 3.10
Classifier: Topic :: Software Development :: Version Control :: Git
Requires-Python: >=3.6
Description-Content-Type: text/markdown
Requires-Dist: matplotlib
Requires-Dist: openpyxl
Requires-Dist: numpy>=1.15.2
Requires-Dist: pandas
Requires-Dist: pyarrow
Requires-Dist: scipy
Requires-Dist: chardet
Requires-Dist: xarray
Requires-Dist: pytest
Requires-Dist: openseespy


# OpenFastSEES

This project combines the OpenSeesPy library for structural analysis and the pyFAST toolbox for tools related to OpenFAST.

## Installation

```bash
pip install OpenFastSEES


# OpenSeesPy


Pip Package for OpenSeesPy

OpenSeesPy is free for research, education, and internal use. Commercial redistribution of OpenSeesPy, such as, but not limited to, an application or cloud-based service that uses ``import openseespy``, requires a license similar to that required for commercial redistribution of OpenSees.exe. Contact Dr. Minjie Zhu (zhum@oregonstate.edu) for commercial licensing details.

## Installation

```bash
pip install openseespy
```

## Import

```python
import openseespy.opensees as ops
```

## Documentation

**Linux and Windows versions maintained by:**

Minjie Zhu <zhum@oregonstate.edu>

Civil and Construction Engineering

Oregon State University

**Mac version maintained by:**

Dr. Stevan Gavrilovic <gavrilovic@berkeley.edu>

Structural and Earthquake Engineering 

University of California, Berkeley

[OpenSeesPy Documentation](https://openseespydoc.readthedocs.io/en/latest/index.html)

[OpenSeesPy Source Code](github.com/OpenSees/OpenSees)

## Issues

Any issues for installation and running the pip package, please
report to
[OpenSeesPy Github Page](https://github.com/zhuminjie/OpenSeesPy).

Any issues and bugs in `OpenSees` should be
reported on the [OpenSees GitHub Page](https://github.com/OpenSees/OpenSees).
